   97
+1, 1 
 C     3.611121    -4.479551    -0.031000
 C     3.744002    -3.303584    -0.827344
 C     4.962098    -3.096388    -1.537862
 C     6.006016    -4.061438    -1.428213
 C     5.850904    -5.177834    -0.649009
 C     4.635877    -5.387240     0.055602
 C     5.128103    -1.929746    -2.332655
 C     4.144623    -0.971124    -2.387540
 C     2.959173    -1.141606    -1.643775
 C     2.742069    -2.288093    -0.905541
 C     1.424208    -2.399472    -0.203478
 O     1.000131    -1.295573     0.305225
Si    -0.552555    -0.467240     0.566161
Cl    -1.611830    -2.124681     1.549026
 O    -2.011221     0.686934     0.799894
 N    -2.482102     1.461875    -0.162436
 C    -1.815356     2.580266    -0.448403
 C    -2.249825     3.434519    -1.491381
 C    -3.461145     3.105250    -2.156769
 C    -4.160106     1.944401    -1.750828
 C    -3.676731     1.116572    -0.771341
 C    -1.516833     4.590226    -1.888197
 C    -1.999846     5.379601    -2.898517
 C    -3.222276     5.062411    -3.551052
 C    -3.939388     3.949650    -3.194028
 C    -0.642511     2.940687     0.400572
 C    -0.629250     4.116432     1.190111
 C     0.588743     4.466155     1.831053
 C     1.720942     3.638466     1.628703
 C     1.644762     2.485018     0.896150
 N     0.431076     2.158295     0.325363
 C    -1.785043     4.929381     1.370440
 C    -1.704823     6.047001     2.158971
 C    -0.483778     6.405822     2.791997
 C     0.639793     5.635478     2.635982
 C     2.852659     1.634975     0.643726
 C     3.129354     0.487056     1.387131
 C     4.326625    -0.197796     1.193701
 C     5.274121     0.248742     0.283164
 C     4.987242     1.388299    -0.463556
 C     3.789536     2.079583    -0.296242
 C     5.971736     1.867853    -1.499414
 F     6.741989     2.868221    -1.046074
 C     4.565631    -1.445803     2.005970
 F     3.441899    -2.183442     2.098285
 O     0.307966     1.008617    -0.308657
 C    -4.374830    -0.131564    -0.363560
 C    -4.971687    -0.906951    -1.365265
 C    -5.630545    -2.084807    -1.033266
 C    -5.697614    -2.517012     0.288193
 C    -5.106895    -1.737572     1.276724
 C    -4.457765    -0.548294     0.968764
 C    -6.266242    -2.939818    -2.100663
 F    -5.727175    -4.169106    -2.123054
 C    -5.130992    -2.242746     2.697600
 F    -6.389329    -2.430094     3.129235
 F    -4.508334    -3.428069     2.795035
 F    -4.531805    -1.397592     3.544428
 F    -7.580400    -3.097537    -1.876796
 F    -6.121379    -2.409267    -3.321543
Cl     0.078782     0.280595     2.539142
 C    -1.160179    -1.073613    -1.244820
 C    -0.816578    -2.465065    -1.406563
 C     0.360986    -2.881734    -1.970241
 F     6.790051     0.879855    -1.893464
 F     5.337242     2.326648    -2.593164
 F     5.520695    -2.219146     1.472158
 F     4.941142    -1.159687     3.263723
 H     1.145858    -3.334350     0.312132
 H    -2.734096     4.652432     0.896705
 H    -0.446970     7.307069     3.415348
 H    -2.593719     6.670475     2.309336
 H     1.583547     5.902986     3.125466
 H     2.683771     3.908957     2.078222
 H    -5.118973     1.698605    -2.221619
 H    -3.587610     5.714719    -4.353023
 H    -4.878397     3.693309    -3.698382
 H    -0.566817     4.836069    -1.400031
 H    -1.434707     6.264779    -3.212296
 H     2.404632     0.113609     2.116007
 H     6.206577    -0.306261     0.122962
 H     3.582383     2.970683    -0.903234
 H    -3.989918     0.033990     1.766763
 H    -4.900115    -0.608784    -2.418412
 H    -6.198397    -3.461375     0.543262
 H     2.178972    -0.364307    -1.651162
 H     4.284575    -0.062261    -2.986830
 H     6.067051    -1.798026    -2.886549
 H     6.939853    -3.886687    -1.978284
 H     6.661427    -5.912005    -0.565615
 H     4.518635    -6.282108     0.679025
 H     2.691890    -4.658277     0.537625
 H    -2.252336    -0.950219    -1.193235
 H    -0.701569    -0.410968    -1.998361
 H    -1.451717    -3.206603    -0.900646
 H     0.594684    -3.950660    -2.057596
 H     0.899393    -2.201962    -2.637996
