   97
+1, 1 
 C    -3.412578     1.423371    -1.141128
 C    -2.622158     2.076200    -0.193815
 C    -2.954709     2.000863     1.157842
 C    -4.075296     1.273111     1.550949
 C    -4.856406     0.593291     0.621070
 C    -4.514746     0.681282    -0.726052
 C    -1.430883     2.852641    -0.628074
 C    -1.481285     3.946401    -1.446726
 C    -0.298161     4.613388    -1.850981
 C     0.950539     4.154263    -1.349171
 C     0.940542     3.041683    -0.472454
 N    -0.200594     2.426616    -0.177239
 C    -0.324475     5.725133    -2.734988
 C     0.847994     6.334381    -3.101282
 C     2.096256     5.864319    -2.609986
 C     2.156072     4.799007    -1.750715
 C     2.169747     2.552741     0.216357
 N     2.600229     1.322803    -0.067337
 C     3.783102     0.806905     0.428358
 C     4.533921     1.597375     1.258930
 C     4.106994     2.889526     1.643232
 C     2.881772     3.381020     1.118846
 C     2.408959     4.665732     1.514940
 C     3.154369     5.418996     2.383442
 C     4.392128     4.937389     2.890334
 C     4.860976     3.699484     2.533772
 O     1.887458     0.583151    -0.900940
Si     0.309619    -0.296487    -0.383871
Cl     0.908688    -2.166035    -1.423961
 C     4.171761    -0.584351     0.085292
 C     4.696506    -1.384008     1.102520
 C     5.069172    -2.699901     0.834600
 C     4.922521    -3.236256    -0.437320
 C     4.402828    -2.428324    -1.448125
 C     4.034155    -1.113302    -1.204823
 C     5.592328    -3.535534     1.975957
 F     4.602619    -3.899362     2.807796
 C     4.194491    -3.040611    -2.813106
 F     5.340153    -3.535911    -3.309684
 O    -0.134810     1.309003     0.528394
 C    -4.403703     1.236602     3.019511
 F    -4.778271     2.443362     3.466630
 C    -5.359708    -0.014302    -1.763736
 F    -5.968524    -1.094745    -1.258031
 O    -1.319011    -0.948694     0.013960
 C    -1.821824    -1.238619     1.160025
 C    -3.057303    -2.066005     1.255188
 C    -3.627195    -2.797805     0.155535
 C    -4.879573    -3.444006     0.380152
 C    -5.509100    -3.369958     1.654657
 C    -4.926928    -2.686615     2.691300
 C    -3.694136    -2.033603     2.479269
 C    -3.037937    -2.908403    -1.140991
 C    -3.677139    -3.602466    -2.141216
 C    -4.926204    -4.231059    -1.917355
 C    -5.508779    -4.156290    -0.678895
Cl    -0.523577     0.457239    -2.280424
 C     1.128334    -0.909984     1.308382
 C     0.253983    -1.638144     2.230512
 C    -0.498717    -2.724686     1.880262
 F     3.332932    -4.067800    -2.760124
 F     3.719737    -2.163816    -3.704672
 F     6.190163    -4.653583     1.547920
 F     6.481573    -2.850575     2.712556
 F    -5.388505     0.372342     3.293188
 F    -3.317283     0.874684     3.737825
 F    -6.324150     0.797166    -2.232044
 F    -4.621350    -0.401360    -2.815541
 H     3.123544     4.435173    -1.386056
 H     0.828711     7.191013    -3.785437
 H     3.021728     6.358317    -2.927677
 H    -1.290238     6.077297    -3.116240
 H    -2.458492     4.296547    -1.799683
 H     5.489532     1.210184     1.631276
 H     4.969903     5.563608     3.580373
 H     5.808278     3.314390     2.928932
 H     1.450114     5.041727     1.140279
 H     2.790504     6.404303     2.696921
 H    -3.140298     1.462032    -2.202300
 H    -5.709670    -0.017722     0.945809
 H    -2.332259     2.505120     1.909661
 H     3.616492    -0.508220    -2.014070
 H     4.792266    -0.992556     2.124625
 H     5.203565    -4.277513    -0.639311
 H    -1.753387    -0.468620     1.956444
 H    -3.236527    -1.473109     3.306007
 H    -5.413137    -2.627391     3.671879
 H    -6.474068    -3.875784     1.790424
 H    -6.474111    -4.640295    -0.481017
 H    -5.418296    -4.777811    -2.730983
 H    -3.206825    -3.673093    -3.130031
 H    -2.068898    -2.446319    -1.344830
 H     1.607035    -0.062037     1.826372
 H     1.901396    -1.600554     0.927451
 H    -1.069480    -3.267060     2.641984
 H    -0.349296    -3.214717     0.906215
 H     0.118917    -1.239011     3.248449
