   97
+1, 1 
 C     3.994133     0.992156     0.232059
 C     3.962192    -0.380157    -0.036975
 C     4.567704    -0.879692    -1.186805
 C     5.173591     0.003243    -2.081620
 C     5.188073     1.370766    -1.840183
 C     4.597163     1.855024    -0.672366
 C     3.276150    -1.293757     0.910997
 C     3.888298    -2.324771     1.567311
 C     3.179258    -3.132081     2.492160
 C     1.818802    -2.822117     2.760142
 C     1.241735    -1.730162     2.067216
 N     1.941399    -1.046676     1.166520
 C     3.788050    -4.223185     3.166490
 C     3.057796    -4.968277     4.057145
 C     1.692951    -4.665721     4.311668
 C     1.077504    -3.616015     3.681099
 C    -0.147362    -1.260925     2.324665
 N    -1.012880    -1.378084     1.322101
 C    -2.352335    -1.071847     1.439436
 C    -2.799459    -0.561735     2.627819
 C    -1.918419    -0.356316     3.718929
 C    -0.553665    -0.726644     3.571420
 C     0.357144    -0.525805     4.648184
 C    -0.099009     0.010746     5.823493
 C    -1.466079     0.367136     5.978739
 C    -2.358891     0.192477     4.952391
 O    -0.554780    -1.811163     0.154931
Si     0.191592    -0.575698    -1.033852
Cl     1.555902    -2.178970    -1.628410
 C    -3.217180    -1.322642     0.261616
 C    -3.250613    -2.581832    -0.341278
 C    -4.067475    -2.789891    -1.445092
 C    -4.847843    -1.761439    -1.965276
 C    -4.805578    -0.513252    -1.353903
 C    -4.006078    -0.287940    -0.236366
 C    -4.042138    -4.127085    -2.139205
 F    -3.082957    -4.172056    -3.078459
 C    -5.588374     0.628326    -1.946941
 F    -6.719509     0.210914    -2.527941
 O     1.325233    -0.102635     0.478227
 C     5.760254    -0.543696    -3.359102
 F     6.669752     0.289293    -3.882222
 C     4.605961     3.343371    -0.427822
 F     3.982828     3.996875    -1.422335
 O    -0.923010     0.682990    -0.357114
 C    -0.708870     1.826679     0.189517
 C    -1.727486     2.880745    -0.018606
 C    -1.763403     4.050052     0.813600
 C    -2.769470     5.022790     0.556076
 C    -3.691384     4.818072    -0.509364
 C    -3.626219     3.695966    -1.297182
 C    -2.634910     2.719417    -1.046900
 C    -0.838941     4.294879     1.870165
 C    -0.923508     5.438724     2.626632
 C    -1.933911     6.401078     2.375097
 C    -2.834989     6.195110     1.361845
 C     1.188460     0.774646    -2.104552
 C     0.759816     2.135023    -1.849998
 C     1.034972     2.812950    -0.696012
Cl    -1.292518    -1.054918    -2.556618
 F    -5.908104     1.545832    -1.022980
 F    -4.871488     1.265730    -2.896853
 F    -3.797090    -5.126451    -1.278573
 F    -5.206012    -4.388292    -2.752325
 F     6.353547    -1.728698    -3.154941
 F     4.812033    -0.734662    -4.290741
 F     3.983096     3.663554     0.716109
 F     5.854102     3.826813    -0.364654
 H     0.020340    -3.396868     3.872273
 H     3.526644    -5.812036     4.577239
 H     1.125659    -5.283554     5.017265
 H     4.839678    -4.455178     2.961130
 H     4.950566    -2.514677     1.372953
 H    -3.864565    -0.321944     2.729754
 H    -1.804903     0.791921     6.931125
 H    -3.413420     0.470459     5.064124
 H     1.415455    -0.786791     4.531560
 H     0.598277     0.172709     6.653487
 H     4.537905    -1.955042    -1.403519
 H     5.659846     2.057257    -2.555097
 H     3.532546     1.383738     1.147340
 H    -2.628369    -3.398259     0.044695
 H    -3.983275     0.702487     0.237609
 H    -5.488794    -1.933983    -2.838961
 H    -0.108954     1.827462     1.116583
 H    -2.568816     1.815806    -1.671985
 H    -4.337797     3.547645    -2.116764
 H    -4.456380     5.583723    -0.693467
 H    -0.042650     3.575677     2.093118
 H    -0.201219     5.609001     3.434327
 H    -1.988466     7.307436     2.990033
 H    -3.620734     6.932165     1.151192
 H     0.035061     2.589709    -2.545792
 H     0.717071     3.854632    -0.565441
 H     1.787563     2.422783     0.000882
 H     2.224699     0.595574    -1.774447
 H     1.047751     0.459776    -3.149490
