   97
+1, 1 
 C    -4.110072    -0.809551    -0.301951
 C    -3.222805    -1.111538     0.726855
 C    -3.066601    -2.439105     1.136714
 C    -3.778073    -3.441466     0.490466
 C    -4.633023    -3.155336    -0.573129
 C    -4.790035    -1.830568    -0.958426
 C    -2.472196     0.002495     1.349384
 N    -1.116808    -0.155461     1.550504
 C    -0.360278     0.766266     2.142709
 C    -0.890362     2.036610     2.474009
 C    -2.268995     2.266825     2.210361
 C    -3.040403     1.204795     1.679240
 C    -2.828433     3.541443     2.492189
 C    -2.033663     4.533369     3.007160
 C    -0.654029     4.303932     3.262786
 C    -0.084761     3.083409     3.008147
 O    -0.517375    -1.247187     1.090037
Si     0.325093    -1.143155    -0.612815
 C     1.268640    -0.718008    -2.290267
 C     1.336111     0.721933    -2.558568
 C     0.300928     1.479728    -3.006215
 C     1.044792     0.373719     2.441827
 C     1.519445     0.216082     3.765650
 C     2.887076    -0.128722     3.940238
 C     3.701693    -0.270754     2.789246
 C     3.189864    -0.111522     1.530912
 N     1.848361     0.184997     1.400580
 C     3.396945    -0.300266     5.254221
 C     2.567140    -0.138719     6.334360
 C     1.197087     0.194283     6.156393
 C     0.674408     0.369375     4.901791
 C     4.014119    -0.168304     0.295330
 C     4.133148     0.965625    -0.507670
 C     4.943113     0.926085    -1.640649
 C     5.624541    -0.234449    -1.991303
 C     5.502231    -1.357568    -1.176488
 C     4.715004    -1.330992    -0.030173
 O     1.337050     0.288080     0.187542
 C     5.109909     2.176723    -2.467541
 F     3.963652     2.881095    -2.516762
 C     6.192014    -2.635961    -1.582121
 F     6.415362    -3.433474    -0.528963
 C    -3.544598    -4.875253     0.892105
 F    -3.737503    -5.055313     2.207555
 C    -5.659159    -1.442208    -2.124935
 F    -6.492261    -0.440057    -1.801960
 O    -0.938657     0.138495    -1.025772
 C    -0.781236     1.389355    -1.186643
 C    -1.935330     2.181479    -1.636822
 C    -2.044779     3.566221    -1.273648
 C    -3.263213     4.234561    -1.582909
 C    -4.294256     3.538430    -2.275036
 C    -4.142392     2.224234    -2.650109
 C    -2.954221     1.540617    -2.315055
 C    -1.019763     4.296614    -0.604031
 C    -1.212620     5.609942    -0.251725
 C    -2.435174     6.267867    -0.540138
 C    -3.434714     5.594461    -1.194708
Cl    -1.018027    -2.649702    -1.422460
Cl     1.734340    -2.622793     0.158454
 F     5.452030    -3.333657    -2.459635
 F     7.371155    -2.390167    -2.171929
 F     6.044111     2.990092    -1.953088
 F     5.472308     1.895871    -3.724782
 F    -4.363527    -5.711997     0.237787
 F    -2.286747    -5.261178     0.623587
 F    -4.907846    -0.989807    -3.151851
 F    -6.391111    -2.462940    -2.579355
 H    -0.386432     0.613899     4.772749
 H     2.959409    -0.271636     7.349563
 H     0.551218     0.307516     7.034668
 H     4.453687    -0.561446     5.384119
 H     4.769701    -0.494782     2.896290
 H    -4.116940     1.340016     1.519144
 H    -2.460939     5.521092     3.218329
 H    -3.891695     3.714020     2.285905
 H     0.982045     2.915214     3.198514
 H    -0.038075     5.116761     3.664600
 H     4.622404    -2.223919     0.599601
 H     6.251545    -0.262623    -2.891119
 H     3.588284     1.883808    -0.249455
 H    -2.376222    -2.692506     1.949492
 H    -4.260333     0.231079    -0.615925
 H    -5.174689    -3.957014    -1.089193
 H     0.025818     1.887160    -0.626672
 H    -2.830037     0.480059    -2.576802
 H    -4.940231     1.698683    -3.188827
 H    -5.220564     4.078548    -2.510770
 H    -0.058952     3.827235    -0.364028
 H    -0.412121     6.154585     0.264522
 H    -2.573355     7.315024    -0.245445
 H    -4.383265     6.092023    -1.434566
 H     0.419756     2.558288    -3.173426
 H    -0.628360     1.012595    -3.363277
 H     2.277721    -1.149132    -2.157720
 H     0.725278    -1.262962    -3.079575
 H     2.192958     1.289790    -2.171658
