   97
+1, 1 
 C    -4.898323    -4.557997    -2.348112
 C    -4.176004    -3.336479    -2.240491
 C    -3.103979    -3.237450    -1.312282
 C    -2.773657    -4.381168    -0.532041
 C    -3.483972    -5.550690    -0.662830
 C    -4.563689    -5.642158    -1.576181
 C    -4.508283    -2.218299    -3.058936
 C    -3.788247    -1.053640    -2.984683
 C    -2.726918    -0.944020    -2.054755
 C    -2.406978    -1.985252    -1.212009
 C    -1.286065    -1.804108    -0.256865
 O    -0.697621    -0.660723    -0.211730
Si     0.592715    -0.152864     0.974469
Cl     2.120482     0.752673     2.288715
 O    -0.140727     1.618726     0.851417
 N    -0.528630     2.158695    -0.289355
 C    -1.881121     2.285163    -0.548674
 C    -2.269084     2.860671    -1.730689
 C    -1.328964     3.294180    -2.693812
 C     0.050540     3.163323    -2.388645
 C     0.400364     2.614070    -1.129231
 C    -1.721797     3.853197    -3.938866
 C    -0.765284     4.247219    -4.838822
 C     0.616151     4.096315    -4.541648
 C     1.025491     3.568390    -3.345019
 C    -2.875771     1.790729     0.435069
 C    -4.000419     1.123629    -0.058925
 C    -4.961741     0.625671     0.811977
 C    -4.867268     0.840901     2.182723
 C    -3.774608     1.558430     2.662090
 C    -2.773748     2.021052     1.810469
 C    -3.623650     1.830862     4.137137
 F    -3.431157     3.138444     4.367673
 C    -6.011937    -0.289728     0.239393
 F    -7.069799    -0.413548     1.046748
 C     1.822992     2.554035    -0.697797
 C     2.619494     3.711853    -0.532677
 C     4.004595     3.528719    -0.270734
 C     4.514346     2.208858    -0.203916
 C     3.692454     1.122496    -0.331344
 N     2.350267     1.343536    -0.549692
 C     4.833958     4.669193    -0.098380
 C     4.290621     5.925773    -0.174999
 C     2.902013     6.105384    -0.421964
 C     2.076245     5.027148    -0.600605
 C     4.153031    -0.283301    -0.228231
 C     3.864277    -1.206098    -1.234679
 C     4.303620    -2.518139    -1.105938
 C     5.033203    -2.925204     0.006952
 C     5.317739    -1.994339     1.000992
 C     4.884525    -0.676378     0.892046
 O     1.526940     0.306176    -0.576611
 C     3.908080    -3.531161    -2.148727
 F     4.788284    -4.540371    -2.221592
 C     6.063249    -2.434289     2.234256
 F     6.723613    -1.413722     2.800660
Cl     1.556763    -2.130910     0.961886
 C    -0.569244    -0.602823     2.506407
 C    -1.359717    -1.799700     2.265802
 C    -2.507223    -1.810905     1.524605
 F     2.709962    -4.073277    -1.871875
 F     3.814373    -2.978243    -3.367428
 F     5.229110    -2.930925     3.163562
 F     6.953805    -3.396645     1.949957
 F    -4.701168     1.439574     4.825685
 F    -2.556745     1.181448     4.637883
 F    -6.441761     0.132196    -0.958142
 F    -5.494229    -1.522034     0.057961
 H     1.004330     5.171893    -0.779299
 H     4.929302     6.806627    -0.039333
 H     2.488531     7.119544    -0.464730
 H     5.902748     4.524069     0.097716
 H     5.585428     2.041655    -0.039606
 H    -3.340501     2.990381    -1.924692
 H    -1.063789     4.676722    -5.802441
 H    -2.789920     3.956264    -4.163155
 H     2.093678     3.445160    -3.133510
 H     1.363543     4.401683    -5.282992
 H     3.281469    -0.904838    -2.113480
 H     5.382060    -3.961713     0.095697
 H     5.093599     0.043958     1.693098
 H    -1.913381     2.566070     2.217970
 H    -4.124393     0.955961    -1.134230
 H    -5.628698     0.450478     2.868368
 H    -0.675284    -2.692148    -0.023226
 H    -2.131403    -0.024661    -2.000516
 H    -4.025993    -0.207161    -3.640700
 H    -5.341123    -2.315809    -3.767467
 H    -5.727064    -4.615337    -3.065725
 H    -5.123857    -6.580612    -1.665952
 H    -3.210802    -6.422408    -0.055810
 H    -1.941883    -4.342844     0.181616
 H     0.138008    -0.748904     3.336372
 H    -1.192192     0.286749     2.684412
 H    -0.941318    -2.765268     2.592227
 H    -3.109468    -2.721048     1.419796
 H    -2.987366    -0.863043     1.257238
