20
0, 1
C    -1.260310     0.290828    -0.000073
C    -0.357596     1.322690    -0.000026
C     1.046768     1.074384     0.000005
C     1.530451    -0.264920     0.000005
C     0.562606    -1.330111    -0.000043
C    -0.787037    -1.042269    -0.000091
H    -0.703004     2.365154    -0.000013
C     0.904586    -2.776847    -0.000035
O     2.011331    -3.263291     0.000122
H    -1.507415    -1.872121    -0.000143
H    -2.338211     0.489746    -0.000099
C     1.971103     2.156414     0.000036
C     2.939576    -0.477025     0.000037
H    -0.001087    -3.439733    -0.000171
C     3.806818     0.590455     0.000062
C     3.323437     1.922334     0.000062
H     3.317012    -1.502279     0.000050
H     4.888855     0.408389     0.000082
H     4.030528     2.760846     0.000082
H     1.578756     3.181754     0.000037
