   97
+1, 1 
 C     6.036902    -4.386363    -0.948490
 C     5.241445    -3.399415    -0.301749
 C     3.901371    -3.191032    -0.729467
 C     3.395751    -3.989094    -1.794762
 C     4.186828    -4.937453    -2.398414
 C     5.523975    -5.139899    -1.974547
 C     5.769663    -2.617931     0.766459
 C     5.003120    -1.668600     1.393738
 C     3.672272    -1.446060     0.967447
 C     3.130082    -2.179535    -0.066040
 C     1.752776    -1.852900    -0.507934
 O     1.288480    -0.717920    -0.108857
Si    -0.351839    -0.166748     0.261526
 C    -0.849171    -1.795958     1.304737
 C     0.275240    -2.701658     1.351323
 C     0.639822    -3.495476     0.295015
 O    -2.007273     0.616386     0.634211
 N    -2.780775     1.034062    -0.356673
 C    -2.500152     2.201454    -0.930996
 C    -3.239270     2.640374    -2.057884
 C    -4.316525     1.826807    -2.504508
 C    -4.597016     0.625946    -1.806918
 C    -3.829567     0.227568    -0.747911
 C    -2.922146     3.840014    -2.758272
 C    -3.673353     4.205977    -3.843997
 C    -4.764538     3.405579    -4.277687
 C    -5.080352     2.239890    -3.628315
 C    -1.417728     3.030404    -0.324667
 C    -1.659847     4.318793     0.207715
 C    -0.534210     5.078751     0.627502
 C     0.755121     4.506502     0.512164
 C     0.936404     3.230650     0.044875
 N    -0.183194     2.533158    -0.356784
 C    -2.971175     4.860553     0.337791
 C    -3.130329     6.119889     0.852484
 C    -2.004720     6.890745     1.253200
 C    -0.734590     6.385793     1.147881
 C     2.267336     2.569670    -0.010580
 C     3.133823     2.769424     1.069043
 C     4.396265     2.187785     1.066769
 C     4.816476     1.393382     0.004213
 C     3.940663     1.180310    -1.053941
 C     2.677930     1.766216    -1.078234
 C     4.345204     0.268872    -2.185724
 F     4.785388     0.949287    -3.255120
 C     5.289976     2.330305     2.270885
 F     6.583720     2.371694     1.924077
 O    -0.031135     1.304415    -0.818883
 C    -4.033838    -1.032535     0.010155
 C    -4.044458    -2.246730    -0.676771
 C    -4.169081    -3.437128     0.034696
 C    -4.305891    -3.436005     1.419433
 C    -4.312646    -2.215944     2.089739
 C    -4.178069    -1.016081     1.399120
 C    -4.056121    -4.741660    -0.711294
 F    -2.767500    -5.058286    -0.936520
 C    -4.388498    -2.173646     3.594784
 F    -4.828600    -3.329307     4.106949
Cl     0.400738     0.887156     2.064709
Cl    -1.104810    -1.109934    -1.650681
 F    -4.599883    -5.756354    -0.027446
 F    -4.656817    -4.679034    -1.908105
 F    -3.178721    -1.931734     4.133093
 F    -5.202824    -1.195913     4.017881
 F     5.322070    -0.570553    -1.814839
 F     3.304230    -0.477258    -2.603364
 F     5.013055     3.436109     2.973166
 F     5.144284     1.283852     3.109215
 H     6.806725    -2.794358     1.080994
 H    -3.844482     4.268009     0.041336
 H    -2.160809     7.897981     1.657317
 H    -4.137326     6.538621     0.961877
 H     0.136771     6.971114     1.463995
 H     1.634658     5.090524     0.807395
 H    -5.439024    -0.005210    -2.115233
 H    -5.352603     3.724122    -5.146527
 H    -5.914629     1.612285    -3.962711
 H    -2.073946     4.457218    -2.441241
 H    -3.427455     5.124310    -4.389532
 H     2.004711     1.568212    -1.918494
 H     5.804811     0.916658     0.016964
 H     2.810086     3.359607     1.935530
 H    -4.164681    -0.064468     1.945338
 H    -3.907886    -2.264260    -1.765625
 H    -4.401232    -4.377970     1.972391
 H     3.056861    -0.665810     1.440811
 H     5.415850    -1.069593     2.214287
 H     1.408924    -2.199609    -1.497443
 H    -1.696219    -2.212451     0.737226
 H    -1.161848    -1.421017     2.292023
 H     0.977946    -2.612770     2.197231
 H    -0.076833    -3.655375    -0.523333
 H     1.470826    -4.204863     0.389701
 H     2.364297    -3.862130    -2.143451
 H     3.779173    -5.544053    -3.216352
 H     6.142888    -5.899347    -2.467403
 H     7.070118    -4.533077    -0.607738
